/*--------------------------------*- C++ -*----------------------------------*\
| =========                 |                                                 |
| \\      /  F ield         | OpenFOAM: The Open Source CFD Toolbox           |
|  \\    /   O peration     | Version:  v2206                                 |
|   \\  /    A nd           | Web:      www.OpenFOAM.com                      |
|    \\/     M anipulation  |                                                 |
\*---------------------------------------------------------------------------*/
FoamFile
{
    version         2.0;
    format          ascii;
    class           dictionary;
    object          blockMeshDict;
}
// * * * * * * * * * * * * * * * * * * * * * * * * * * * * * * * * * * * * * //

#include        "../setup"

convertToMeters 1;

vertices
(
    ($xMin $yMin $zMin)
    ($xMax $yMin $zMin)
    ($xMax $yMax $zMin)
    ($xMin $yMax $zMin)
    ($xMin $yMin $zMax)
    ($xMax $yMin $zMax)
    ($xMax $yMax $zMax)
    ($xMin $yMax $zMax)
);

blocks
(
    hex (0 1 2 3 4 5 6 7) ($nx $ny $nz) simpleGrading (1 1 1)
);


edges
(
);

boundary
(
    inlet
    {
        type patch;
        faces
        (
			(0 4 7 3)
        );
    }
    outlet
    {
        type patch;
        faces
        (
            (2 6 5 1)
        );
    }	
    sides
    {
        type patch;
        faces
        (
            (0 1 5 4)
            (3 7 6 2)
            (0 3 2 1)
            (4 5 6 7)
        );
    }
);

mergePatchPairs
(
);


// ************************************************************************* //
